Circuit: * D:\Documentos\TC2\TC2\TP Semanales\TS6\Ltspice\Draft1.asc

WARNING: Less than two connections to node N003.  This node is used by L2.

Date: Thu Jul 07 17:06:58 2022
Total elapsed time: 0.013 seconds.

tnom = 27
temp = 27
method = trap
totiter = 0
traniter = 0
tranpoints = 0
accept = 0
rejected = 0
matrix size = 4
fillins = 1
solver = Normal

