Circuit: * C:\Users\bruno\OneDrive\Documentos\TC2\GitHub\TC2\TP Semanales\TS5\LTspice\Draft2.asc

Fatal Error: Inductor L1 is in a loop involving inductor L2 and other
voltage sources and/or inductors making an over-defined circuit matrix.

You will need to correct the circuit or add some series resistance.
