Circuit: * C:\Users\bruno\Documents\GitHub\TC2\TP Semanales\TS5\LTspice\Draft1.asc


Date: Thu Jun 09 17:27:17 2022
Total elapsed time: 0.031 seconds.

tnom = 27
temp = 27
method = trap
totiter = 0
traniter = 0
tranpoints = 0
accept = 0
rejected = 0
matrix size = 4
fillins = 1
solver = Normal

