Circuit: * C:\Users\bruno\OneDrive\Documentos\TC2\GitHub\TC2\TP Semanales\TS5\LTspice\ej1_b_lattice.asc


Date: Sun Jun 12 17:23:01 2022
Total elapsed time: 0.005 seconds.

tnom = 27
temp = 27
method = trap
totiter = 0
traniter = 0
tranpoints = 0
accept = 0
rejected = 0
matrix size = 4
fillins = 1
solver = Normal

