Circuit: * C:\Users\bruno\Documents\GitHub\TC2\TP Semanales\TS5\LTspice\ej2b.asc


Date: Thu Jun 09 13:35:51 2022
Total elapsed time: 0.016 seconds.

tnom = 27
temp = 27
method = trap
totiter = 0
traniter = 0
tranpoints = 0
accept = 0
rejected = 0
matrix size = 3
fillins = 1
solver = Normal

