Circuit: * C:\Users\bruno\OneDrive\Documentos\TC2\GitHub\TC2\TP Semanales\TS5\LTspice\ej2b.asc


Date: Sun Jun 12 23:41:00 2022
Total elapsed time: 0.037 seconds.

tnom = 27
temp = 27
method = trap
totiter = 0
traniter = 0
tranpoints = 0
accept = 0
rejected = 0
matrix size = 3
fillins = 1
solver = Normal

