Circuit: * C:\Users\bruno\OneDrive\Documentos\TC2\GitHub\TC2\TPS\Ltspice\Draft2.asc

Direct Newton iteration for .op point succeeded.

Date: Sun May 29 03:23:11 2022
Total elapsed time: 0.024 seconds.

tnom = 27
temp = 27
method = trap
totiter = 3
traniter = 0
tranpoints = 0
accept = 0
rejected = 0
matrix size = 5
fillins = 0
solver = Normal
Matrix Compiler1:       9 opcodes
Matrix Compiler2: 321 bytes object code size
