Circuit: * C:\Users\bruno\Documents\GitHub\TC2\TPS\Ltspice\Draft1.asc

Direct Newton iteration for .op point succeeded.
.step rfix=100
.step rfix=500
.step rfix=900
.step rfix=1300
.step rfix=1700
.step rfix=2100
.step rfix=2500
.step rfix=2900
.step rfix=3300
.step rfix=3700
.step rfix=4100
.step rfix=4500
.step rfix=4900
.step rfix=5000

Date: Sat Jun 18 18:36:41 2022
Total elapsed time: 0.126 seconds.

tnom = 27
temp = 27
method = modified trap
totiter = 259
traniter = 248
tranpoints = 125
accept = 125
rejected = 0
matrix size = 37
fillins = 40
solver = Normal
Matrix Compiler1: 3.64 KB object code size  0.6/0.3/[0.2]
Matrix Compiler2: 3.69 KB object code size  0.2/0.3/[0.2]

