Circuit: * C:\Users\bruno\OneDrive\Documentos\TC2\GitHub\TC2\TPS\Ltspice\tp2_ej5_OTA.asc

Direct Newton iteration for .op point succeeded.
Ignoring empty pin current: Ix(u1:1)
Ignoring empty pin current: Ix(u1:2)
Ignoring empty pin current: Ix(u2:1)
Ignoring empty pin current: Ix(u2:2)
Ignoring empty pin current: Ix(u1:1)
Ignoring empty pin current: Ix(u1:2)
Ignoring empty pin current: Ix(u2:1)
Ignoring empty pin current: Ix(u2:2)

Date: Mon May 30 21:41:35 2022
Total elapsed time: 0.046 seconds.

tnom = 27
temp = 27
method = trap
totiter = 3
traniter = 0
tranpoints = 0
accept = 0
rejected = 0
matrix size = 12
fillins = 4
solver = Normal
Matrix Compiler1:      30 opcodes
Matrix Compiler2: 872 bytes object code size
