Circuit: * C:\Users\bruno\Documents\GitHub\TC2\TPS\TP2\Ltspice\pasaaltos_OTA_desnorm.asc

Direct Newton iteration for .op point succeeded.

Date: Sat May 28 14:51:23 2022
Total elapsed time: 0.010 seconds.

tnom = 27
temp = 27
method = trap
totiter = 3
traniter = 0
tranpoints = 0
accept = 0
rejected = 0
matrix size = 6
fillins = 2
solver = Normal
Matrix Compiler1:      18 opcodes
Matrix Compiler2: 416 bytes object code size
