Circuit: * C:\Users\bruno\OneDrive\Documentos\TC2\GitHub\TC2\TPS\TP2\Ltspice\pasaaltos_OTA_desnorm.asc

Direct Newton iteration for .op point succeeded.
Ignoring empty pin current: Ix(u1:1)
Ignoring empty pin current: Ix(u1:2)
Ignoring empty pin current: Ix(u1:1)
Ignoring empty pin current: Ix(u1:2)

Date: Sat May 28 23:51:35 2022
Total elapsed time: 0.030 seconds.

tnom = 27
temp = 27
method = trap
totiter = 3
traniter = 0
tranpoints = 0
accept = 0
rejected = 0
matrix size = 7
fillins = 2
solver = Normal
Matrix Compiler1:      15 opcodes
Matrix Compiler2: 487 bytes object code size
