Circuit: * D:\Documentos\TC2\TC2\TP Semanales\TS8\LTspice\cuadripolo_ts8.asc


Date: Thu Aug 25 15:34:18 2022
Total elapsed time: 0.017 seconds.

tnom = 27
temp = 27
method = trap
totiter = 0
traniter = 0
tranpoints = 0
accept = 0
rejected = 0
matrix size = 4
fillins = 1
solver = Normal

