Circuit: * C:\Users\bruno\Documents\GitHub\TC2\TP Semanales\TS4\Ltspice\Draft1.asc

WARNING: Node X1:V2 is floating.
WARNING: Node X2:V2 is floating.
WARNING: Node X3:V2 is floating.
WARNING: Node X4:V2 is floating.

WARNING: Less than two connections to node X1:V2.  This node is used by C:X1:2.
WARNING: Less than two connections to node X2:V2.  This node is used by C:X2:2.
WARNING: Less than two connections to node X3:V2.  This node is used by C:X3:2.
WARNING: Less than two connections to node X4:V2.  This node is used by C:X4:2.
Ignoring empty pin current: Ix(x1:v-)
Ignoring empty pin current: Ix(x2:v-)
Ignoring empty pin current: Ix(x3:v-)
Ignoring empty pin current: Ix(x4:v-)

Date: Fri May 27 21:19:57 2022
Total elapsed time: 0.141 seconds.

tnom = 27
temp = 27
method = trap
totiter = 0
traniter = 0
tranpoints = 0
accept = 0
rejected = 0
matrix size = 10
fillins = 11
solver = Normal

