Circuit: * C:\Users\bruno\OneDrive\Documentos\TC2\GitHub\TC2\TP Semanales\TS4\Ltspice\Draft1.asc

Ignoring empty pin current: Ix(u1:1)
Ignoring empty pin current: Ix(u1:2)

Date: Fri Jun 10 12:53:06 2022
Total elapsed time: 0.033 seconds.

tnom = 27
temp = 27
method = trap
totiter = 0
traniter = 0
tranpoints = 0
accept = 0
rejected = 0
matrix size = 5
fillins = 2
solver = Normal

