Circuit: * C:\Users\bruno\Documents\GitHub\TC2\TP Semanales\TS4\Ltspice\pasabanda_rlc_norm.asc

Number of points per decade reduced from 100000 to 27510.
Ignoring empty pin current: Ix(u2:1)
Ignoring empty pin current: Ix(u2:2)
Ignoring empty pin current: Ix(u3:1)
Ignoring empty pin current: Ix(u3:2)
Ignoring empty pin current: Ix(u1:1)
Ignoring empty pin current: Ix(u1:2)
Ignoring empty pin current: Ix(u4:1)
Ignoring empty pin current: Ix(u4:2)

Date: Fri Jun 03 17:13:06 2022
Total elapsed time: 0.219 seconds.

tnom = 27
temp = 27
method = trap
totiter = 0
traniter = 0
tranpoints = 0
accept = 0
rejected = 0
matrix size = 13
fillins = 1
solver = Normal

