Circuit: * C:\Users\bruno\Documents\GitHub\TC2\TP Semanales\Ltspice\Draft1.asc

WARNING: Less than two connections to node B.  This node is used by V1.
WARNING: Less than two connections to node A.  This node is used by V2.
WARNING: Less than two connections to node C.  This node is used by V3.
Direct Newton iteration for .op point succeeded.

Date: Thu May 05 17:56:07 2022
Total elapsed time: 0.032 seconds.

tnom = 27
temp = 27
method = modified trap
totiter = 851
traniter = 848
tranpoints = 425
accept = 425
rejected = 0
matrix size = 6
fillins = 0
solver = Normal
Matrix Compiler1: 74 bytes object code size  0.0/0.0/[0.0]
Matrix Compiler2: 238 bytes object code size  0.0/0.0/[0.0]

