Circuit: * C:\Users\bruno\Documents\GitHub\TC2\TP Semanales\Ltspice\TPS2_FPBajo.asc

Ignoring empty pin current: Ix(u1:1)
Ignoring empty pin current: Ix(u1:2)
Ignoring empty pin current: Ix(u2:1)
Ignoring empty pin current: Ix(u2:2)
Ignoring empty pin current: Ix(u3:1)
Ignoring empty pin current: Ix(u3:2)
.step c=1e-006
.step c=2e-006
.step c=3e-006

Date: Tue May 03 12:14:12 2022
Total elapsed time: 0.047 seconds.

tnom = 27
temp = 27
method = trap
totiter = 0
traniter = 0
tranpoints = 0
accept = 0
rejected = 0
matrix size = 8
fillins = 6
solver = Normal

